examples/national_grid/data/ireland/models/w04.raw
<!DOCTYPE HTML PUBLIC "-//W3C//DTD HTML 4.0 Transitional//EN">
<!-- saved from url=(0069)http://www.eirgrid.com/EirgridPortal/uploads/Publications/w04_web.raw -->
<HTML><HEAD>
<META http-equiv=Content-Type content="text/html; charset=windows-1252">
<META content="MSHTML 6.00.2900.3492" name=GENERATOR></HEAD>
<BODY><PRE>0,   100.00          / PSS/E-29.4    THU, JUL 22 2004  14:43
ESB NATIONAL GRID FORECAST STATEMENT 2004-2010
BASECASE WINTER 2004/2005
   10,'F_M_____',  38.0000,1,     0.000,     0.000,   1,   1,1.05412, -15.7968,   2
   11,'FMN_LOOP',  38.0000,1,     0.000,     0.000,   1,   1,1.05697, -11.5656,   2
   12,'BEDFORD ',  38.0000,1,     0.000,     0.000,   1,   1,1.03033, -14.0148,   2
   13,'M_R_____',  38.0000,1,     0.000,     0.000,   1,   1,1.04214, -13.6304,   2
   14,'F_I_____',  38.0000,1,     0.000,     0.000,   1,   1,1.05264, -13.9544,   2
   15,'I_M_____',  38.0000,1,     0.000,     0.000,   1,   1,1.03615, -13.8883,   2
   41,'TANEY   ', 110.0000,1,     0.000,     0.000,   1,   1,1.06295,  -8.4432,   1
 1021,'ARDNACRU', 110.0000,1,     0.000,     0.000,   7,   1,1.03000, -12.1203,   1
 1041,'AGHADA  ', 110.0000,1,     0.000,     0.000,   3,   1,1.06602, -10.7877,   1
 1042,'AGHADA  ', 220.0000,1,     0.000,     0.000,   3,   1,1.07500,  -8.0167,   1
 1061,'ARIGNA  ', 110.0000,1,     0.000,     0.000,   9,   1,1.05028, -15.4660,   2
 1081,'AHANE   ', 110.0000,1,     0.000,     0.000,   7,   1,1.03849, -11.7490,   2
 1101,'ANNER   ', 110.0000,1,     0.000,     0.000,   5,   3,1.04661, -16.3915,   5
 1121,'ARKLOW  ', 110.0000,1,     0.000,     0.000,   6,   1,1.05726,  -9.0269,   1
 1122,'ARKLOW  ', 220.0000,1,     0.000,     0.000,   6,   1,1.05998,  -6.6170,   1
 1141,'ATHLONE ', 110.0000,1,     0.000,     0.000,   8,   1,1.07248, -14.5202,   1
 1161,'AUGHINIS', 110.0000,1,     0.000,     0.000,   7,   3,1.02611,  -9.3560,   1
 1181,'ARVA    ', 110.0000,1,     0.000,     0.000,  10,   1,1.01634, -15.1218,   1
 1201,'ARTANE  ', 110.0000,1,     0.000,     0.000,   1,   1,1.05628,  -9.0460,   2
 1251,'BOOLTIAG', 110.0000,2,     0.000,     0.000,   7,   1,1.01590, -13.2544,   1
 1281,'BALLYLIC', 110.0000,1,     0.000,     0.000,   3,   1,1.04814, -13.4680,   2
 1301,'BALLYBEG', 110.0000,1,     0.000,     0.000,   6,   1,1.05148,  -8.7536,   1
 1321,'BLAKE   ', 110.0000,1,     0.000,     0.000,   8,   1,1.05930,  -7.3088,   2
 1341,'BINBANE ', 110.0000,1,     0.000,     0.000,   9,   1,1.02184, -19.7744,   2
 1361,'BALLYDIN', 110.0000,1,     0.000,     0.000,   5,   1,1.04886, -15.3420,   1
 1381,'BARNAHEL', 110.0000,1,     0.000,     0.000,   3,   1,1.06552, -12.0945,   1
 1401,'BELLACOR', 110.0000,1,     0.000,     0.000,   9,   1,1.05286, -20.9677,   1
 1421,'BLACKROC', 110.0000,1,     0.000,     0.000,   2,   2,1.05209,  -7.6096,   2
 1441,'BANDON  ', 110.0000,1,     0.000,     0.000,   3,   1,1.05309, -13.5235,   1
 1461,'BARRYMOR', 110.0000,1,     0.000,     0.000,   5,   1,1.05469, -13.6052,   2
 1481,'BUTLERST', 110.0000,1,     0.000,     0.000,   5,   1,1.05092, -13.4255,   1
 1501,'BRINNY  ', 110.0000,1,     0.000,     0.000,   3,   1,1.05295, -13.5319,   5
 1511,'BRINNY  ', 110.0000,1,     0.000,     0.000,   3,   1,1.05296, -13.5314,   5
 1581,'CABRA   ', 110.0000,1,     0.000,     0.000,   1,   2,1.05569,  -9.0719,   2
 1601,'CLASHAVO', 110.0000,1,     0.000,     0.000,   3,   1,1.05994, -10.7892,   1
 1602,'CLASHAVO', 220.0000,1,     0.000,     0.000,   3,   1,1.06502,  -7.3081,   1
 1621,'COOLROE ', 110.0000,1,     0.000,     0.000,   3,   1,1.05805, -12.0979,   1
 1641,'CASHLA  ', 110.0000,1,     0.000,     0.000,   9,   1,1.06492, -12.3982,   1
 1642,'CASHLA  ', 220.0000,1,     0.000,     0.000,   9,   1,1.05476,  -6.5943,   1
 1661,'CASTLEBA', 110.0000,1,     0.000,     0.000,   9,   1,1.07079, -20.1117,   1
 1681,'CARRIGAD', 110.0000,1,     0.000,     0.000,   3,   1,1.05700, -11.7781,   1
 1701,'CATH_FAL', 110.0000,1,     0.000,     0.000,   9,   1,1.05000, -18.5776,   1
 1721,'CAHIR   ', 110.0000,1,     0.000,     0.000,   5,   1,1.05321, -16.4952,   1
 1741,'CARRICKM', 110.0000,1,     0.000,     0.000,   2,   2,1.05332,  -7.4875,   2
 1742,'CARRICKM', 220.0000,1,     0.000,     0.000,   2,   2,1.07186,  -3.7435,   1
 1761,'CLIFF   ', 110.0000,1,     0.000,     0.000,   9,   1,1.05277, -18.4172,   1
 1781,'CASTLEFA', 110.0000,1,     0.000,     0.000,   7,   3,1.02570,  -9.3759,   5
 1791,'CASTLEFA', 110.0000,1,     0.000,     0.000,   7,   3,1.02570,  -9.3759,   5
 1801,'COOKSTOW', 110.0000,1,     0.000,     0.000,   1,   2,1.05847,  -8.4734,   2
 1821,'CLOON   ', 110.0000,1,     0.000,     0.000,   9,   1,1.05912, -14.8113,   2
 1841,'CRANE   ', 110.0000,1,     0.000,     0.000,   6,   1,1.03709, -12.7136,   1
 1861,'CARRICK ', 110.0000,1,     0.000,     0.000,   9,   1,1.05189, -14.4537,   1
 1871,'COLLEGE ', 110.0000,1,     0.000,     0.000,   2,   1,1.05627,  -9.1773,   1
 1881,'CHARLEVI', 110.0000,1,     0.000,     0.000,   3,   1,1.02145, -13.4303,   1
 1901,'CARLOW  ', 110.0000,1,     0.000,     0.000,   8,   1,1.05082, -10.5611,   1
 1921,'COW CROS', 110.0000,1,     0.000,     0.000,   3,   1,1.06436, -11.9023,   1
 1931,'CUNGHILL', 110.0000,1,     0.000,     0.000,   9,   1,1.03282, -19.7947,   4
 1941,'CUSHALIN', 110.0000,1,     0.000,     0.000,   8,   1,1.07500,  -5.3408,   1
 1961,'CASTLEVI', 110.0000,1,     0.000,     0.000,   3,   1,1.06412, -11.8542,   1
 1981,'CORRACLA', 110.0000,1,     0.000,     0.000,   9,   1,1.03320, -17.2620,   1
 2001,'CULLENAG', 110.0000,1,     0.000,     0.000,   5,   1,1.05910, -13.0506,   1
 2002,'CULLENAG', 220.0000,1,     0.000,     0.000,   5,   1,1.05252,  -9.7728,   1
 2021,'CITY WES', 110.0000,1,     0.000,     0.000,   1,   1,1.06000,  -8.3933,   2
 2081,'DUNKETTL', 110.0000,1,     0.000,     0.000,   3,   1,1.06412, -11.8542,   5
 2101,'DUNDALK ', 110.0000,1,     0.000,     0.000,  10,   1,1.03429, -10.8184,   1
 2121,'DRUMLINE', 110.0000,1,     0.000,     0.000,   7,   1,1.01544, -13.2182,   1
 2141,'DUNGARVA', 110.0000,1,     0.000,     0.000,   5,   1,1.04571, -13.5383,   1
 2161,'DOON    ', 110.0000,1,     0.000,     0.000,   5,   1,1.04719, -16.3580,   1
 2181,'DRYBRIDG', 110.0000,1,     0.000,     0.000,  10,   1,0.99925, -12.6815,   1
 2202,'DUNSTOWN', 220.0000,1,     0.000,     0.000,   2,   1,1.07470,  -3.6946,   1
 2204,'DUNSTOWN', 380.0000,1,     0.000,     0.000,   2,   1,1.03427,  -0.3672,   1
 2221,'DUNMANWA', 110.0000,1,     0.000,     0.000,   3,   1,1.04883, -13.4345,   1
 2231,'DERRYBRI', 110.0000,2,     0.000,     0.000,   9,   1,1.04392, -12.1734,   1
 2241,'DALLOW  ', 110.0000,1,     0.000,     0.000,   5,   1,1.04935, -12.4289,   2
 2261,'DERRYIRO', 110.0000,1,     0.000,     0.000,   2,   1,1.03437, -10.2892,   1
 2281,'DALTON  ', 110.0000,1,     0.000,     0.000,   9,   1,1.06364, -18.6143,   1
 2301,'DUNFIRTH', 110.0000,1,     0.000,     0.000,   2,   1,1.04275,  -9.6434,   2
 2321,'DRUMKEEN', 110.0000,1,     0.000,     0.000,   9,   1,1.04208, -21.3736,   1
 2361,'ENNIS   ', 110.0000,1,     0.000,     0.000,   7,   1,1.01721, -13.3415,   1
 2481,'FASS EAS', 110.0000,1,     0.000,     0.000,   2,   2,1.04686,  -7.8205,   2
 2491,'FASS WES', 110.0000,1,     0.000,     0.000,   2,   2,1.04665,  -7.8178,   2
 2521,'FLAGFORD', 110.0000,1,     0.000,     0.000,   9,   1,1.05540, -14.2584,   1
 2522,'FLAGFORD', 220.0000,1,     0.000,     0.000,   9,   1,1.03470,  -9.6176,   1
 2541,'FRN ST A', 110.0000,1,     0.000,     0.000,   1,   2,1.06052,  -7.2321,   2
 2551,'FRN ST B', 110.0000,1,     0.000,     0.000,   1,   2,1.06493,  -8.0989,   2
 2561,'FIN_URBA', 110.0000,1,     0.000,     0.000,   2,   2,1.05826,  -8.8721,   1
 2562,'FINGLAS ', 220.0000,1,     0.000,     0.000,   2,   2,1.07160,  -3.9016,   1
 2571,'FIN_RURA', 110.0000,1,     0.000,     0.000,   2,   2,1.05902,  -8.9282,   1
 2681,'GILRA   ', 110.0000,1,     0.000,     0.000,   9,   3,1.05662, -14.5596,   2
 2701,'GLASMORE', 110.0000,1,     0.000,     0.000,   2,   2,1.03640, -10.3196,   2
 2711,'GLASMORE', 110.0000,1,     0.000,     0.000,   2,   2,1.05914,  -8.9312,   2
 2721,'GRIFFINR', 110.0000,1,     0.000,     0.000,   2,   2,1.05564,  -8.6215,   2
 2731,'GRIFFINR', 110.0000,1,     0.000,     0.000,   2,   1,1.05620,  -8.5973,   2
 2741,'GREAT IS', 110.0000,1,     0.000,     0.000,   6,   1,1.05965, -12.6130,   1
 2742,'GREAT IS', 220.0000,1,     0.000,     0.000,   6,   1,1.05500,  -8.9242,   1
 2761,'GRANGE  ', 110.0000,1,     0.000,     0.000,   1,   2,1.05706,  -9.1253,   2
 2781,'GALWAY  ', 110.0000,1,     0.000,     0.000,   9,   1,1.04862, -13.5795,   1
 2801,'GOLAGH  ', 110.0000,1,     0.000,     0.000,   9,   1,1.04570, -19.7189,   1
 2821,'GORTAWEE', 110.0000,1,     0.000,     0.000,   9,   1,1.03014, -16.9873,   1
 2861,'GRANGE C', 110.0000,1,     0.000,     0.000,   1,   1,1.06202,  -8.3471,   2
 2881,'GLENLARA', 110.0000,1,     0.000,     0.000,   3,   1,1.01093, -14.0284,   2
 2921,'HAULBOWL', 110.0000,1,     0.000,     0.000,   3,   3,1.06659, -12.0331,   5
 2931,'HAULBOWL', 110.0000,1,     0.000,     0.000,   3,   3,1.06553, -12.0947,   5
 2941,'HAROLDS ', 110.0000,1,     0.000,     0.000,   1,   2,1.06162,  -7.1545,   2
 2962,'HUNTSTOW', 220.0000,1,     0.000,     0.000,   2,   1,1.07210,  -3.8006,   1
 3061,'INISCARR', 110.0000,1,     0.000,     0.000,   3,   1,1.06000, -11.8669,   1
 3081,'INCHICOR', 110.0000,1,     0.000,     0.000,   1,   2,1.06745,  -7.9275,   2
 3082,'INCHICOR', 220.0000,1,     0.000,     0.000,   2,   2,1.07276,  -4.0536,   1
 3101,'IKERRIN ', 110.0000,1,     0.000,     0.000,   5,   1,1.02962, -16.7985,   2
 3122,'IRISHTOW', 220.0000,1,     0.000,     0.000,   2,   1,1.07444,  -3.2760,   1
 3201,'KNOCKRAH', 110.0000,1,     0.000,     0.000,   3,   1,1.06577, -11.7095,   1
 3202,'KNOCKRAH', 220.0000,1,     0.000,     0.000,   3,   1,1.06447,  -9.0131,   1
 3221,'KILBARRY', 110.0000,1,     0.000,     0.000,   3,   1,1.05692, -12.3590,   1
 3241,'KILTEEL ', 110.0000,1,     0.000,     0.000,   8,   1,1.02705, -10.4174,   2
 3261,'KILKENNY', 110.0000,1,     0.000,     0.000,   8,   1,1.01455, -13.3742,   1
 3281,'KILLONAN', 110.0000,1,     0.000,     0.000,   7,   1,1.03890, -11.7168,   1
 3282,'KILLONAN', 220.0000,1,     0.000,     0.000,   7,   1,1.04456,  -7.4767,   1
 3301,'KNOCKERA', 110.0000,1,     0.000,     0.000,   7,   1,1.03453, -10.6277,   1
 3321,'KNOCKUMB', 110.0000,1,     0.000,     0.000,  10,   3,0.97355, -14.6590,   5
 3341,'KELLIS  ', 110.0000,1,     0.000,     0.000,   8,   1,1.05537, -10.4186,   1
 3342,'KELLIS  ', 220.0000,1,     0.000,     0.000,   8,   1,1.04957,  -7.3857,   1
 3361,'KILTOY  ', 110.0000,1,     0.000,     0.000,   9,   3,1.03827, -22.0370,   5
 3371,'KILTOY  ', 110.0000,1,     0.000,     0.000,   9,   3,1.03818, -22.0421,   5
 3381,'KINNEGAD', 110.0000,1,     0.000,     0.000,   2,   1,1.03608, -10.1964,   1
 3401,'KILLOTER', 110.0000,1,     0.000,     0.000,   5,   1,1.05157, -13.3584,   1
 3421,'KILMORE ', 110.0000,1,     0.000,     0.000,   1,   1,1.05787,  -9.0563,   2
 3501,'LANESBOR', 110.0000,1,     0.000,     0.000,   9,   1,1.06500, -13.5638,   1
 3521,'LOUTH   ', 110.0000,1,     0.000,     0.000,  10,   1,1.05401,  -9.8297,   1
 3522,'LOUTH   ', 220.0000,2,     0.000,     0.000,  10,   1,1.04321,  -6.4278,   1
 3541,'LIMERICK', 110.0000,1,     0.000,     0.000,   7,   1,1.02617, -11.8127,   1
 3561,'LISDRUM ', 110.0000,1,     0.000,     0.000,  10,   1,1.01479, -12.9201,   1
 3581,'LETTERKE', 110.0000,1,     0.000,     0.000,   9,   1,1.03937, -21.9686,   1
 3601,'LIBERTY ', 110.0000,1,     0.000,     0.000,   3,   1,1.05973, -12.2677,   2
 3611,'LIBERTY ', 110.0000,1,     0.000,     0.000,   3,   1,1.05998, -12.2597,   2
 3621,'LISHEEN ', 110.0000,1,     0.000,     0.000,   5,   1,1.02804, -18.1307,   1
 3761,'MACETOWN', 110.0000,1,     0.000,     0.000,   2,   2,1.05219,  -9.2647,   1
 3781,'MCDERMOT', 110.0000,1,     0.000,     0.000,   1,   2,1.05541,  -9.0878,   2
 3801,'MIDLETON', 110.0000,1,     0.000,     0.000,   3,   1,1.06024, -11.7643,   1
 3821,'MEATH HI', 110.0000,1,     0.000,     0.000,  10,   1,1.04218, -10.3880,   2
 3841,'MAYNOOTH', 110.0000,1,     0.000,     0.000,   2,   2,1.05751,  -8.4558,   1
 3842,'MAYNOOTH', 220.0000,1,     0.000,     0.000,   2,   2,1.06775,  -4.5622,   1
 3861,'MILLTOWN', 110.0000,1,     0.000,     0.000,   1,   2,1.06411,  -6.9555,   2
 3871,'MILLTOWN', 110.0000,1,     0.000,     0.000,   1,   2,1.06335,  -8.4163,   2
 3881,'MACROOM ', 110.0000,1,     0.000,     0.000,   3,   1,1.05685, -11.7739,   1
 3901,'MONETEEN', 110.0000,1,     0.000,     0.000,   7,   1,1.02406, -11.4999,   1
 3941,'MONEYPOI', 110.0000,1,     0.000,     0.000,   7,   1,1.01234, -13.4266,   1
 3942,'MONEYPOI', 220.0000,1,     0.000,     0.000,   7,   1,1.07105,   0.4455,   1
 3944,'MNYPG1G3', 380.0000,1,     0.000,     6.000,   2,   1,1.07500,   4.6597,   1
 3954,'MNYPG2  ', 380.0000,1,     0.000,     6.000,   7,   1,1.07500,   5.1740,   1
 3961,'MARINA  ', 110.0000,1,     0.000,     0.000,   3,   1,1.06000, -12.2559,   1
 3981,'MUNGRET ', 110.0000,1,     0.000,     0.000,   7,   3,1.02387, -11.5113,   5
 3991,'MUNGRET ', 110.0000,1,     0.000,     0.000,   7,   3,1.02387, -11.5108,   5
 4001,'MULLINGA', 110.0000,1,     0.000,     0.000,   9,   1,1.02500, -13.7440,   1
 4021,'MALLOW  ', 110.0000,1,     0.000,     0.000,   3,   1,1.03102, -13.3730,   1
 4041,'MOY     ', 110.0000,1,     0.000,     0.000,   9,   1,1.04200, -21.5311,   1
 4061,'MULLAGHA', 110.0000,1,     0.000,     0.000,  10,   1,1.04051, -10.5118,   2
 4071,'MEENTYCA', 110.0000,2,     0.000,     0.000,   9,   1,1.04290, -21.2760,   1
 4081,'MONREAD ', 110.0000,1,     0.000,     0.000,   8,   1,1.01844, -11.0658,   1
 4201,'NEWBRIDG', 110.0000,1,     0.000,     0.000,   8,   1,1.01036, -11.7209,   1
 4221,'NAVAN   ', 110.0000,1,     0.000,     0.000,  10,   1,0.97730, -14.4231,   1
 4242,'NORTH WA', 220.0000,1,     0.000,     0.000,   2,   2,1.07485,  -3.8655,   1
 4281,'NANGOR  ', 110.0000,1,     0.000,     0.000,   1,   1,1.06178,  -8.3637,   1
 4341,'OLDCOURT', 110.0000,1,     0.000,     0.000,   3,   3,1.06436, -11.9024,   5
 4351,'OLDCOURT', 110.0000,1,     0.000,     0.000,   3,   3,1.06436, -11.9024,   5
 4361,'OUGHTRAG', 110.0000,1,     0.000,     0.000,   7,   1,1.03077,  -9.8912,   2
 4382,'OLDSTREE', 220.0000,1,     0.000,     0.000,   9,   1,1.06423,  -2.5041,   1
 4384,'OLDSTREE', 380.0000,1,     0.000,     0.000,   9,   1,1.05349,   0.5659,   1
 4441,'POLLAPHU', 110.0000,1,     0.000,     0.000,   8,   1,1.07000,  -9.2316,   1
 4451,'POOLBEG ', 110.0000,1,     0.000,     0.000,   1,   1,1.06514,  -6.8831,   2
 4461,'POOLBEG ', 110.0000,1,     0.000,     0.000,   1,   1,1.06559,  -6.7860,   2
 4462,'POOLBEG ', 220.0000,1,     0.000,     0.000,   2,   2,1.07500,  -3.9164,   1
 4471,'POOLBEG ', 110.0000,1,     0.000,     0.000,   1,   1,1.06558,  -6.7890,   2
 4481,'PORTLAOI', 110.0000,1,     0.000,     0.000,   8,   1,1.03721, -10.4500,   1
 4501,'PLATIN  ', 110.0000,1,     0.000,     0.000,  10,   3,0.99936, -12.6780,   1
 4522,'PROSPECT', 220.0000,1,     0.000,     0.000,   7,   1,1.07301,  -0.7758,   1
 4621,'RYEBROOK', 110.0000,1,     0.000,     0.000,   2,   3,1.04608,  -9.4138,   1
 4651,'RINGSEND', 110.0000,1,     0.000,     0.000,   1,   2,1.06513,  -6.8829,   2
 4681,'RATHKEAL', 110.0000,1,     0.000,     0.000,   7,   1,1.03138,  -9.0844,   1
 4701,'RICHMOND', 110.0000,1,     0.000,     0.000,   9,   1,1.05212, -14.1629,   2
 4721,'RAFFEEN ', 110.0000,1,     0.000,     0.000,   3,   1,1.06656, -12.0327,   1
 4722,'RAFFEEN ', 220.0000,1,     0.000,     0.000,   3,   1,1.06346, -10.2474,   1
 4741,'RINAWADE', 110.0000,1,     0.000,     0.000,   2,   3,1.05195,  -8.8432,   1
 4761,'RINGASKI', 110.0000,1,     0.000,     0.000,   3,   1,1.06627, -12.0489,   2
 4901,'SHELTON ', 110.0000,1,     0.000,     0.000,   6,   3,1.05727,  -9.0269,   5
 4911,'SHELTON ', 110.0000,1,     0.000,     0.000,   6,   3,1.05727,  -9.0270,   5
 4941,'SHANNONB', 110.0000,1,     0.000,     0.000,   5,   1,1.05988, -12.3966,   1
 4942,'SHANNONB', 220.0000,1,     0.000,     0.000,   5,   1,1.04614,  -8.7378,   1
 4961,'SHANKILL', 110.0000,1,     0.000,     0.000,  10,   1,1.00330, -14.3729,   1
 4981,'SLIGO   ', 110.0000,1,     0.000,     0.000,   9,   1,1.02678, -19.2398,   1
 5001,'SOMERSET', 110.0000,1,     0.000,     0.000,   9,   1,1.05140, -12.8051,   2
 5022,'SHELLYBA', 220.0000,1,     0.000,     0.000,   2,   2,1.07466,  -3.2315,   1
 5061,'STRATFOR', 110.0000,1,     0.000,     0.000,   8,   1,1.05259, -10.2868,   2
 5071,'SHANEMOR', 110.0000,1,     0.000,     0.000,   9,   1,1.04201, -12.4009,   1
 5141,'TARBERT ', 110.0000,1,     0.000,     0.000,   7,   1,1.05863,  -4.5058,   1
 5142,'TARBERT ', 220.0000,1,     0.000,     0.000,   7,   1,1.07500,  -1.2870,   1
 5181,'TRABEG  ', 110.0000,1,     0.000,     0.000,   3,   1,1.06007, -12.2876,   1
 5202,'TURLOUGH', 220.0000,1,     0.000,     0.000,   2,   1,1.08300,  -3.0657,   1
 5221,'TULLABRA', 110.0000,1,     0.000,     0.000,   7,   1,1.01172, -13.4498,   2
 5241,'TAWN_A  ', 110.0000,1,     0.000,     0.000,   9,   3,1.04204, -21.5321,   2
 5251,'TAWN_B  ', 110.0000,1,     0.000,     0.000,   9,   3,1.04204, -21.5321,   2
...
0 / END OF BUS DATA, BEGIN LOAD DATA
   10,'LD',1,   1,   1,    94.470,    28.750,     0.000,     0.000,     0.000,     0.000,   2
   11,'LD',1,   1,   1,    75.510,    14.710,     0.000,     0.000,     0.000,     0.000,   2
   12,'LD',1,   1,   1,    85.930,    14.060,     0.000,     0.000,     0.000,     0.000,   2
   13,'LD',1,   1,   1,    85.310,    22.710,     0.000,     0.000,     0.000,     0.000,   2
   14,'LD',1,   1,   1,    82.810,    19.880,     0.000,     0.000,     0.000,     0.000,   2
   15,'LD',1,   1,   1,    89.050,    13.530,     0.000,     0.000,     0.000,     0.000,   2
   41,'LD',1,   1,   1,    15.360,     5.940,     0.000,     0.000,     0.000,     0.000,   2
 1101,'LD',1,   5,   2,    11.000,     3.850,     0.000,     0.000,     0.000,     0.000,   5
 1101,'MI',0,   5,   2,     6.500,     1.950,     0.000,     0.000,     0.000,     0.000,   5
 1871,'LD',1,   2,   2,    16.000,     5.250,     0.000,     0.000,     0.000,     0.000,   5
 2821,'LD',1,   9,   2,    16.000,     5.550,     0.000,     0.000,     0.000,     0.000,   5
 2821,'MI',0,   9,   2,     6.000,     1.800,     0.000,     0.000,     0.000,     0.000,   5
 3321,'LD',1,  10,   2,    22.000,     7.480,     0.000,     0.000,     0.000,     0.000,   5
 3321,'MI',0,  10,   2,     1.000,     0.300,     0.000,     0.000,     0.000,     0.000,   5
 3421,'LD',1,   1,   2,    12.000,     4.060,     0.000,     0.000,     0.000,     0.000,   5
 3621,'LD',1,   5,   2,    15.000,     4.930,     0.000,     0.000,     0.000,     0.000,   5
 3621,'MI',0,   5,   2,     2.000,     0.600,     0.000,     0.000,     0.000,     0.000,   5
 4501,'LD',1,  10,   2,    27.000,     9.170,     0.000,     0.000,     0.000,     0.000,   5
 4501,'MI',0,  10,   2,     6.500,     1.950,     0.000,     0.000,     0.000,     0.000,   5
10204,'LD',1,   7,   1,    23.440,     7.290,     0.000,     0.000,     0.000,     0.000,   2
10205,'LD',1,   7,   1,    49.060,    16.560,     0.000,     0.000,     0.000,     0.000,   2
10471,'LD',1,   3,   1,    11.020,     3.960,     0.000,     0.000,     0.000,     0.000,   3
10476,'LD',0,   3,   1,     0.360,     0.130,     0.000,     0.000,     0.000,     0.000,   3
10602,'LD',1,   9,   1,     3.020,     1.350,     0.000,     0.000,     0.000,     0.000,   2
10801,'LD',1,   7,   1,     5.420,     1.770,     0.000,     0.000,     0.000,     0.000,   2
11204,'LD',1,   6,   1,    31.790,    11.850,     0.000,     0.000,     0.000,     0.000,   2
11404,'LD',1,   9,   1,    57.910,    18.330,     0.000,     0.000,     0.000,     0.000,   2
12001,'LD',1,   1,   1,    11.980,     3.000,     0.000,     0.000,     0.000,     0.000,   2
12804,'LD',1,   3,   1,    13.540,     4.170,     0.000,     0.000,     0.000,     0.000,   2
13001,'LD',1,   6,   1,    16.120,     6.370,     0.000,     0.000,     0.000,     0.000,   2
13204,'LD',1,   8,   1,    22.810,     6.710,     0.000,     0.000,     0.000,     0.000,   2
13404,'LD',1,   9,   1,    25.090,    10.830,     0.000,     0.000,     0.000,     0.000,   2
13601,'LD',1,   5,   2,     5.900,     1.930,     0.000,     0.000,     0.000,     0.000,   5
13601,'MI',0,   5,   2,     1.590,     0.470,     0.000,     0.000,     0.000,     0.000,   5
13604,'LD',1,   5,   1,     4.780,     1.770,     0.000,     0.000,     0.000,     0.000,   2
13802,'LD',1,   3,   1,    23.750,     7.710,     0.000,     0.000,     0.000,     0.000,   2
13804,'LD',1,   3,   1,    24.160,     7.500,     0.000,     0.000,     0.000,     0.000,   2
14002,'LD',1,   9,   1,     4.260,     1.460,     0.000,     0.000,     0.000,     0.000,   2
14204,'LD',1,   2,   1,    59.320,     9.270,     0.000,     0.000,     0.000,     0.000,   2
14401,'LD',1,   3,   1,     9.690,     2.820,     0.000,     0.000,     0.000,     0.000,   2
14404,'LD',1,   3,   1,    19.790,     7.380,     0.000,     0.000,     0.000,     0.000,   2
14604,'LD',1,   5,   1,    25.000,     9.370,     0.000,     0.000,     0.000,     0.000,   2
14804,'LD',1,   5,   1,    37.290,     8.750,     0.000,     0.000,     0.000,     0.000,   2
15001,'LD',1,   3,   2,     4.200,     1.380,     0.000,     0.000,     0.000,     0.000,   5
15001,'MI',0,   3,   2,     2.290,     0.680,     0.000,     0.000,     0.000,     0.000,   5
15801,'LD',1,   1,   1,    16.040,     5.210,     0.000,     0.000,     0.000,     0.000,   2
16202,'LD',1,   3,   1,     7.490,     2.500,     0.000,     0.000,     0.000,     0.000,   2
16604,'LD',1,   9,   1,    55.270,    18.070,     0.000,     0.000,     0.000,     0.000,   2
17004,'LD',1,   9,   1,    16.670,     5.520,     0.000,     0.000,     0.000,     0.000,   2
17204,'LD',1,   5,   1,    26.100,     8.730,     0.000,     0.000,     0.000,     0.000,   2
17404,'LD',1,   2,   1,    87.080,    18.020,     0.000,     0.000,     0.000,     0.000,   2
17802,'LD',1,   7,   2,    44.000,    14.460,     0.000,     0.000,     0.000,     0.000,   5
17802,'MI',0,   7,   2,     5.000,     1.500,     0.000,     0.000,     0.000,     0.000,   5
18004,'LD',1,   1,   1,    90.830,    25.520,     0.000,     0.000,     0.000,     0.000,   2
18204,'LD',1,   9,   1,    20.210,     5.180,     0.000,     0.000,     0.000,     0.000,   2
18402,'LD',1,   6,   1,     4.170,     1.350,     0.000,     0.000,     0.000,     0.000,   2
18404,'LD',1,   6,   1,    25.310,     8.120,     0.000,     0.000,     0.000,     0.000,   2
18604,'LD',1,   9,   1,    35.760,    13.820,     0.000,     0.000,     0.000,     0.000,   2
18804,'LD',1,   3,   1,    19.160,     6.970,     0.000,     0.000,     0.000,     0.000,   2
19004,'LD',1,   8,   1,    53.430,    19.460,     0.000,     0.000,     0.000,     0.000,   2
19204,'LD',1,   3,   1,    19.270,     2.500,     0.000,     0.000,     0.000,     0.000,   2
19471,'LD',1,   8,   1,    11.700,     4.210,     0.000,     0.000,     0.000,     0.000,   4
19601,'LD',1,   3,   1,    10.420,     3.440,     0.000,     0.000,     0.000,     0.000,   2
20201,'LD',1,   1,   1,     7.710,     2.500,     0.000,     0.000,     0.000,     0.000,   2
21004,'LD',1,  10,   1,    67.600,    21.460,     0.000,     0.000,     0.000,     0.000,   2
21204,'LD',1,   7,   1,    33.330,     9.480,     0.000,     0.000,     0.000,     0.000,   2
21404,'LD',1,   5,   1,    31.460,     8.440,     0.000,     0.000,     0.000,     0.000,   2
21604,'LD',1,   5,   1,    32.390,     5.000,     0.000,     0.000,     0.000,     0.000,   2
21804,'LD',1,  10,   1,    71.230,    21.040,     0.000,     0.000,     0.000,     0.000,   2
22204,'LD',1,   3,   1,    28.440,     8.950,     0.000,     0.000,     0.000,     0.000,   2
22404,'LD',1,   5,   1,    13.230,     4.370,     0.000,     0.000,     0.000,     0.000,   2
22804,'LD',1,   9,   1,    17.500,     5.660,     0.000,     0.000,     0.000,     0.000,   2
23001,'LD',1,   2,   1,     7.600,     2.560,     0.000,     0.000,     0.000,     0.000,   2
23604,'LD',1,   7,   1,    59.470,    20.210,     0.000,     0.000,     0.000,     0.000,   2
24804,'LD',1,   2,   1,    61.140,    19.780,     0.000,     0.000,     0.000,     0.000,   2
25604,'LD',1,   2,   1,   101.760,    25.410,     0.000,     0.000,     0.000,     0.000,   2
26802,'LD',1,   9,   2,    12.000,     3.940,     0.000,     0.000,     0.000,     0.000,   5
26802,'MI',0,   9,   2,     2.000,     0.600,     0.000,     0.000,     0.000,     0.000,   5
27004,'LD',1,   2,   1,    63.850,    12.590,     0.000,     0.000,     0.000,     0.000,   2
27204,'LD',1,   2,   1,    66.340,     4.170,     0.000,     0.000,     0.000,     0.000,   2
27404,'LD',1,   6,   1,    19.790,     8.330,     0.000,     0.000,     0.000,     0.000,   2
27471,'LD',0,   6,   1,     3.000,     1.080,     0.000,     0.000,     0.000,     0.000,   3
27472,'LD',0,   6,   1,     3.000,     1.080,     0.000,     0.000,     0.000,     0.000,   3
27473,'LD',1,   6,   1,     6.530,     2.350,     0.000,     0.000,     0.000,     0.000,   3
27604,'LD',1,   1,   1,    50.000,    16.460,     0.000,     0.000,     0.000,     0.000,   2
27802,'LD',1,   9,   1,    12.500,     4.170,     0.000,     0.000,     0.000,     0.000,   2
27804,'LD',1,   9,   1,   130.610,    41.450,     0.000,     0.000,     0.000,     0.000,   2
28604,'LD',1,   1,   1,    13.300,     3.710,     0.000,     0.000,     0.000,     0.000,   2
28804,'LD',1,   3,   1,    12.520,     4.420,     0.000,     0.000,     0.000,     0.000,   2
29401,'LD',1,   1,   1,    16.870,     5.520,     0.000,     0.000,     0.000,     0.000,   2
29671,'LD',1,   2,   2,     6.900,     2.480,     0.000,     0.000,     0.000,     0.000,   4
30804,'LD',1,   1,   1,    77.110,    16.480,     0.000,     0.000,     0.000,     0.000,   2
31004,'LD',1,   5,   1,    27.080,     8.850,     0.000,     0.000,     0.000,     0.000,   2
31271,'LD',1,   2,   2,     6.980,     2.510,     0.000,     0.000,     0.000,     0.000,   4
32201,'LD',1,   3,   1,    14.370,     4.690,     0.000,     0.000,     0.000,     0.000,   2
32204,'LD',1,   3,   1,    89.890,    16.140,     0.000,     0.000,     0.000,     0.000,   2
32404,'LD',1,   8,   1,    21.040,     8.270,     0.000,     0.000,     0.000,     0.000,   2
32604,'LD',1,   8,   1,    68.540,    22.710,     0.000,     0.000,     0.000,     0.000,   2
33004,'LD',1,   7,   1,    32.840,     8.320,     0.000,     0.000,     0.000,     0.000,   2
33601,'LD',1,   9,   2,    18.000,     5.910,     0.000,     0.000,     0.000,     0.000,   5
33601,'MI',0,   9,   2,     4.000,     1.200,     0.000,     0.000,     0.000,     0.000,   5
33801,'LD',1,   2,   2,     7.700,     2.530,     0.000,     0.000,     0.000,     0.000,   5
33801,'MI',0,   2,   2,     2.290,     0.680,     0.000,     0.000,     0.000,     0.000,   5
34001,'LD',1,   5,   1,    10.420,     2.080,     0.000,     0.000,     0.000,     0.000,   2
35004,'LD',1,   9,   1,    13.540,     4.480,     0.000,     0.000,     0.000,     0.000,   2
35078,'LD',1,   9,   3,     8.600,     3.090,     0.000,     0.000,     0.000,     0.000,   3
35404,'LD',1,   7,   1,    91.870,    28.330,     0.000,     0.000,     0.000,     0.000,   2
35604,'LD',1,  10,   1,    25.620,     6.980,     0.000,     0.000,     0.000,     0.000,   2
35804,'LD',1,   9,   1,    51.040,    14.370,     0.000,     0.000,     0.000,     0.000,   2
36001,'LD',1,   3,   1,    13.540,     4.480,     0.000,     0.000,     0.000,     0.000,   2
37601,'LD',1,   2,   1,    16.460,     5.410,     0.000,     0.000,     0.000,     0.000,   2
37602,'LD',1,   2,   2,     5.000,     1.640,     0.000,     0.000,     0.000,     0.000,   5
37602,'MI',0,   2,   2,     6.000,     1.800,     0.000,     0.000,     0.000,     0.000,   5
38001,'LD',1,   3,   1,     7.150,     2.340,     0.000,     0.000,     0.000,     0.000,   2
38004,'LD',1,   3,   1,    20.770,     6.820,     0.000,     0.000,     0.000,     0.000,   2
38204,'LD',1,  10,   1,    31.250,    10.730,     0.000,     0.000,     0.000,     0.000,   2
38804,'LD',1,   3,   1,    15.830,     2.190,     0.000,     0.000,     0.000,     0.000,   2
39471,'LD',1,   9,   1,    20.000,     7.200,     0.000,     0.000,     0.000,     0.000,   3
39472,'LD',1,   2,   2,    20.000,     7.200,     0.000,     0.000,     0.000,     0.000,   3
39473,'LD',1,   7,   1,    20.000,     7.200,     0.000,     0.000,     0.000,     0.000,   3
39601,'LD',1,   3,   1,    25.830,     5.830,     0.000,     0.000,     0.000,     0.000,   2
39672,'LD',1,   3,   1,     2.780,     1.000,     0.000,     0.000,     0.000,     0.000,   3
39675,'LD',1,   3,   1,     4.440,     1.600,     0.000,     0.000,     0.000,     0.000,   3
39801,'LD',1,   7,   2,    20.000,     6.570,     0.000,     0.000,     0.000,     0.000,   5
39801,'MI',0,   7,   2,     7.000,     2.100,     0.000,     0.000,     0.000,     0.000,   5
40004,'LD',1,   9,   1,    46.450,    17.180,     0.000,     0.000,     0.000,     0.000,   2
40204,'LD',1,   3,   1,    19.950,     4.760,     0.000,     0.000,     0.000,     0.000,   2
40404,'LD',1,   9,   1,    30.830,     7.400,     0.000,     0.000,     0.000,     0.000,   2
40602,'LD',1,  10,   2,     8.000,     2.620,     0.000,     0.000,     0.000,     0.000,   5
40801,'LD',1,   8,   1,    13.850,     5.480,     0.000,     0.000,     0.000,     0.000,   2
42004,'LD',1,   8,   1,    48.020,    15.860,     0.000,     0.000,     0.000,     0.000,   2
42204,'LD',1,  10,   1,    61.870,    20.520,     0.000,     0.000,     0.000,     0.000,   2
42802,'LD',1,   1,   2,    26.000,     8.540,     0.000,     0.000,     0.000,     0.000,   5
43604,'LD',1,   7,   1,    24.160,     6.980,     0.000,     0.000,     0.000,     0.000,   2
44671,'LD',1,   2,   2,     4.820,     1.730,     0.000,     0.000,     0.000,     0.000,   3
44672,'LD',1,   2,   2,     4.820,     1.730,     0.000,     0.000,     0.000,     0.000,   3
44673,'LD',1,   2,   2,    12.260,     4.410,     0.000,     0.000,     0.000,     0.000,   3
44804,'LD',1,   8,   1,    38.420,    12.920,     0.000,     0.000,     0.000,     0.000,   2
46210,'LD',1,   2,   2,    24.000,     7.880,     0.000,     0.000,     0.000,     0.000,   5
46214,'LD',1,   2,   2,    21.400,     7.030,     0.000,     0.000,     0.000,     0.000,   5
46224,'LD',1,   2,   2,    31.000,    10.180,     0.000,     0.000,     0.000,     0.000,   5
46501,'LD',1,   1,   1,     2.810,     0.940,     0.000,     0.000,     0.000,     0.000,   2
46804,'LD',1,   7,   1,    31.250,    10.620,     0.000,     0.000,     0.000,     0.000,   2
47004,'LD',1,   9,   1,    29.580,    10.310,     0.000,     0.000,     0.000,     0.000,   2
47402,'LD',1,   2,   2,    16.000,     5.250,     0.000,     0.000,     0.000,     0.000,   5
47601,'LD',1,   3,   1,     5.300,     1.770,     0.000,     0.000,     0.000,     0.000,   2
49604,'LD',1,  10,   1,    60.620,    23.750,     0.000,     0.000,     0.000,     0.000,   2
49804,'LD',1,   9,   1,    50.930,    25.830,     0.000,     0.000,     0.000,     0.000,   2
50004,'LD',1,   9,   1,    27.080,     9.790,     0.000,     0.000,     0.000,     0.000,   2
50276,'LD',1,   2,   2,     9.970,     3.590,     0.000,     0.000,     0.000,     0.000,   3
50604,'LD',1,   8,   1,    18.850,     7.580,     0.000,     0.000,     0.000,     0.000,   2
51471,'LD',0,   7,   1,     3.000,     1.080,     0.000,     0.000,     0.000,     0.000,   3
51472,'LD',1,   7,   1,     2.630,     0.940,     0.000,     0.000,     0.000,     0.000,   3
51473,'LD',1,   7,   1,    13.990,     5.030,     0.000,     0.000,     0.000,     0.000,   3
51474,'LD',1,   7,   1,    13.990,     5.030,     0.000,     0.000,     0.000,     0.000,   3
51801,'LD',1,   1,   1,    14.060,     4.580,     0.000,     0.000,     0.000,     0.000,   2
51804,'LD',1,   3,   1,    41.870,     0.830,     0.000,     0.000,     0.000,     0.000,   2
52204,'LD',1,   7,   1,    10.210,     3.120,     0.000,     0.000,     0.000,     0.000,   2
52476,'LD',0,   9,   1,     0.360,     0.130,     0.000,     0.000,     0.000,     0.000,   3
52604,'LD',1,   7,   1,    22.500,     6.980,     0.000,     0.000,     0.000,     0.000,   2
52804,'LD',1,   7,   1,    50.930,     9.480,     0.000,     0.000,     0.000,     0.000,   2
53004,'LD',1,   5,   1,    28.540,    10.620,     0.000,     0.000,     0.000,     0.000,   2
53204,'LD',1,   2,   1,    30.930,    11.560,     0.000,     0.000,     0.000,     0.000,   2
53404,'LD',1,   9,   1,    13.130,     4.310,     0.000,     0.000,     0.000,     0.000,   2
53604,'LD',1,   9,   1,    18.110,     3.750,     0.000,     0.000,     0.000,     0.000,   2
53804,'LD',1,   5,   1,    17.440,     5.030,     0.000,     0.000,     0.000,     0.000,   2
54404,'LD',1,   5,   1,    46.250,    14.690,     0.000,     0.000,     0.000,     0.000,   2
54801,'LD',1,   3,   2,     0.500,     0.160,     0.000,     0.000,     0.000,     0.000,   5
54801,'MI',0,   3,   2,     7.910,     2.370,     0.000,     0.000,     0.000,     0.000,   5
55004,'LD',1,   6,   1,    49.060,    14.580,     0.000,     0.000,     0.000,     0.000,   2
55201,'LD',1,   1,   1,    25.830,     8.540,     0.000,     0.000,     0.000,     0.000,   2
0 / END OF LOAD DATA, BEGIN GENERATOR DATA
 1251,'1 ',     6.800,     0.000,     0.000,     0.000,1.00000,    0,    19.450,   0.00000,   0.20000,   0.00000,   0.10000,1.00000,1,  100.0,    19.450,     0.000,   1,1.0000
 2231,'1 ',    14.000,     0.000,     0.000,     0.000,1.00000,    0,    40.000,   0.00000,   0.20000,   0.00000,   0.00000,1.00000,1,  100.0,    40.000,     0.000,   1,1.0000
 4071,'1 ',    10.800,     0.000,     0.000,     0.000,1.00000,    0,    31.000,   0.00000,   0.20000,   0.00000,   0.00000,1.00000,1,  100.0,    30.960,     0.000,   1,1.0000
10204,'1 ',     0.900,     0.000,     0.000,     0.000,1.00000,    0,     2.550,   0.00000,   0.20000,   0.00000,   0.20000,1.00000,1,  100.0,     2.550,     0.000,   4,1.0000
10204,'2 ',     0.200,     0.000,     0.000,     0.000,1.00000,    0,     0.660,   0.00000,   0.20000,   0.00000,   0.00000,1.00000,1,  100.0,     0.660,     0.000,   4,1.0000
10271,'1 ',    22.000,    12.847,    15.000,    -7.000,1.03000, 1021,    34.000,   0.00000,   0.22000,   0.00000,   0.00000,1.00000,1,   15.0,    22.000,     5.000,   3,1.0000
10272,'2 ',    22.000,    12.847,    15.000,    -7.000,1.03000, 1021,    34.000,   0.00000,   0.22000,   0.00000,   0.00000,1.00000,1,   15.0,    22.000,     5.000,   3,1.0000
10273,'3 ',    22.000,    12.847,    15.000,    -7.000,1.03000, 1021,    30.000,   0.00000,   0.22000,   0.00000,   0.00000,1.00000,1,   15.0,    22.000,     5.000,   3,1.0000
10274,'4 ',    23.000,    12.847,    15.000,    -7.000,1.03000, 1021,    34.000,   0.00000,   0.22000,   0.00000,   0.00000,1.00000,1,   15.0,    23.000,     5.000,   3,1.0000
10471,'1 ',   245.000,    98.447,   153.000,   -53.000,1.07500, 1042,   318.800,   0.00000,   0.22500,   0.00000,   0.00000,1.00000,1,  153.0,   270.000,    40.000,   3,1.0000
10472,'11',    90.000,     0.000,    60.000,   -30.000,1.07500, 1042,   100.900,   0.00000,   0.12500,   0.00000,   0.00000,1.00000,0,   60.0,    90.000,    20.000,   3,1.0000
10473,'12',    90.000,     0.000,    60.000,   -30.000,1.07500, 1042,   100.900,   0.00000,   0.12500,   0.00000,   0.00000,1.00000,0,   60.0,    90.000,    20.000,   3,1.0000
10474,'14',    90.000,     0.000,    60.000,   -30.000,1.07500, 1042,   100.900,   0.00000,   0.12500,   0.00000,   0.00000,1.00000,0,   60.0,    90.000,    20.000,   3,1.0000
10476,'1 ',    52.000,     0.000,    32.600,   -22.700,1.07500, 1042,    62.000,   0.00000,   0.15100,   0.00000,   0.00000,1.00000,0,   32.6,    52.000,     1.200,   3,1.0000
10602,'1 ',     0.400,    -0.180,    -0.180,    -0.180,1.05000,    0,     1.200,   0.00000,   0.20000,   0.00000,   0.20000,1.00000,1,  100.0,     1.200,     0.000,   4,1.0000
10602,'2 ',     1.700,    -0.740,    -0.740,    -0.740,1.05000,    0,     4.850,   0.00000,   0.20000,   0.00000,   0.20000,1.00000,1,  100.0,     4.850,     0.000,   4,1.0000
10602,'3 ',     1.800,    -0.760,    -0.760,    -0.760,1.05000,    0,     5.000,   0.00000,   0.20000,   0.00000,   0.20000,1.00000,1,  100.0,     5.000,     0.000,   4,1.0000
10602,'4 ',     1.200,    -1.400,    -1.400,    -1.400,1.05000,    0,     3.400,   0.00000,   0.20000,   0.00000,   0.20000,1.00000,1,  100.0,     3.400,     0.000,   4,1.0000
11204,'1 ',     8.900,     0.000,     0.000,     0.000,1.05000,    0,    25.500,   0.00000,   0.20000,   0.00000,   0.20000,1.00000,1,  100.0,    25.500,     0.000,   2,1.0000
12804,'1 ',     3.000,     0.000,     0.000,     0.000,1.00000,    0,     8.500,   0.00000,   0.20000,   0.00000,   0.20000,1.00000,1,  100.0,     8.500,     0.000,   1,1.0000
13404,'1 ',     0.200,     0.000,     0.000,     0.000,1.05000,    0,     0.660,   0.00000,   0.20000,   0.00000,   0.20000,1.00000,1,  100.0,     0.660,     0.000,   4,1.0000
14002,'3 ',     2.100,    -0.920,    -0.920,    -0.920,1.05000,    0,     6.000,   0.00000,   0.20000,   0.00000,   0.10000,1.00000,1,  100.0,     6.000,     0.000,   3,1.0000
14404,'1 ',     1.600,     0.000,     0.000,     0.000,1.00000,    0,     4.500,   0.00000,   0.20000,   0.00000,   0.00000,1.00000,1,  100.0,     4.500,     0.000,   2,1.0000
14604,'1 ',     0.000,     0.000,     1.000,    -1.000,1.05000,    0,     7.000,   0.00000,   0.15000,   0.00000,   0.10000,1.00000,0,    1.0,     0.000,     0.000,   5,1.0000
16604,'1 ',     1.200,    -0.520,    -0.520,    -0.520,1.05000,    0,     3.400,   0.00000,   0.20000,   0.00000,   0.20000,1.00000,1,  100.0,     3.400,     0.000,   4,1.0000
16604,'2 ',     6.500,     0.000,     0.000,     0.000,1.05000,    0,    18.700,   0.00000,   0.20000,   0.00000,   0.20000,1.00000,1,  100.0,    18.700,     0.000,   4,1.0000
16873,'3 ',     8.000,     0.976,     7.000,    -1.000,1.05700, 1681,    11.500,   0.00000,   0.25000,   0.00000,   0.00000,1.00000,1,    7.0,     8.000,     2.000,   3,1.0000
17004,'4 ',     1.200,     0.000,     0.000,     0.000,1.05000,    0,     3.450,   0.00000,   0.20000,   0.00000,   0.20000,1.00000,1,  100.0,     3.400,     0.000,   2,1.0000
17004,'5 ',     1.100,    -0.470,    -0.470,    -0.470,1.05000,    0,     3.200,   0.00000,   0.20000,   0.00000,   0.20000,1.00000,1,  100.0,     3.100,     0.000,   4,1.0000
17073,'3 ',    22.500,     5.646,     7.000,   -10.000,1.05000, 1701,    30.000,   0.00000,   0.20000,   0.00000,   0.00000,1.00000,1,    7.0,    22.500,     5.000,   3,1.0000
17074,'4 ',    22.500,     5.646,     7.000,   -10.000,1.05000, 1701,    30.000,   0.00000,   0.20000,   0.00000,   0.00000,1.00000,1,    7.0,    22.500,     5.000,   3,1.0000
17671,'1 ',    10.000,     5.646,     7.000,    -3.000,1.05000, 1701,    12.500,   0.00000,   0.15000,   0.00000,   0.00000,1.00000,1,    7.0,    10.000,     3.000,   3,1.0000
17672,'2 ',    10.000,     5.646,     7.000,    -3.000,1.05000, 1701,    12.500,   0.00000,   0.13500,   0.00000,   0.00000,1.00000,1,    7.0,    10.000,     3.000,   3,1.0000
18404,'1 ',     1.800,     0.000,     0.000,     0.000,1.00000,    0,     5.200,   0.00000,   0.20000,   0.00000,   0.20000,1.00000,1,  100.0,     5.200,     0.000,   2,1.0000
19004,'1 ',     0.900,     0.000,     0.000,     0.000,1.05000,    0,     2.550,   0.00000,   0.25400,   0.00000,   0.10000,1.00000,1,  100.0,     2.550,     0.000,   2,1.0000
19402,'1 ',     8.300,   -11.125,     6.000,   -12.000,1.00000,    0,    25.000,   0.00000,   0.20000,   0.00000,   0.10000,1.00000,1,    6.0,    25.000,     0.000,   1,1.0000
19471,'1 ',   130.000,    31.374,    75.000,   -50.000,1.07500, 1941,   153.000,   0.00000,   0.15300,   0.00000,   0.00000,1.00000,1,   75.0,   130.000,    60.000,   4,1.0000
22204,'1 ',     1.600,    -0.700,    -0.700,    -0.700,1.05000,    0,     4.600,   0.00000,   0.20000,   0.00000,   0.20000,1.00000,1,  100.0,     4.600,     0.000,   3,1.0000
22204,'2 ',     2.100,    -0.920,    -0.920,    -0.920,1.05000,    0,     6.000,   0.00000,   0.20000,   0.00000,   0.20000,1.00000,1,  100.0,     6.000,     0.000,   3,1.0000
22204,'3 ',     2.100,     0.000,     0.000,     0.000,1.05000,    0,     5.950,   0.00000,   0.20000,   0.00000,   0.20000,1.00000,1,  100.0,     5.950,     0.000,   4,1.0000
27204,'5 ',     4.000,     0.000,     1.000,    -1.000,1.00000,    0,     5.000,   0.00000,   0.27000,   0.00000,   0.10000,1.00000,0,    1.0,     4.000,     0.000,   3,1.0000
27471,'1 ',    60.000,     0.000,    42.000,    -3.000,1.07500, 2741,    75.000,   0.00000,   0.16000,   0.00000,   0.00000,1.00000,0,   42.0,    60.000,    25.000,   3,1.0000
27472,'2 ',    60.000,     0.000,    40.000,    -3.000,1.07500, 2741,    75.000,   0.00000,   0.16000,   0.00000,   0.00000,1.00000,0,   40.0,    60.000,    25.000,   3,1.0000
27473,'3 ',    97.500,    78.280,    82.000,   -48.000,1.05500, 2742,   150.000,   0.00000,   0.14600,   0.00000,   0.00000,1.00000,1,   82.0,   120.000,    30.000,   3,1.0000
27804,'1 ',     1.200,    -0.500,    -0.500,    -0.500,1.00000,    0,     3.300,   0.00000,   0.20000,   0.00000,   0.20000,1.00000,1,  100.0,     3.300,     0.000,   4,1.0000
27804,'2 ',     0.200,     0.000,     0.000,     0.000,1.00000,    0,     0.675,   0.00000,   0.20000,   0.00000,   0.20000,1.00000,1,  100.0,     0.675,     0.000,   2,1.0000
28002,'1 ',     5.300,    -2.290,    -2.290,    -2.290,1.00000,    0,    15.000,   0.00000,   0.20000,   0.00000,   0.10000,1.00000,1,  100.0,    15.000,     0.000,   4,1.0000
29671,'CT',   230.000,    52.615,   173.000,  -106.000,1.07500, 4462,   288.000,   0.00000,   0.14500,   0.00000,   0.00000,1.00000,1,  173.0,   230.000,   138.000,   4,1.0000
29672,'ST',   120.000,    27.372,    90.000,   -47.000,1.07500, 4462,   150.000,   0.00000,   0.15500,   0.00000,   0.00000,1.00000,1,   90.0,   120.000,    89.000,   4,1.0000
30671,'1 ',    15.000,     5.557,    13.000,    -4.000,1.06000, 3061,    21.400,   0.00000,   0.16000,   0.00000,   0.00000,1.00000,1,    3.0,    15.000,     4.000,   3,1.0000
30671,'2 ',     4.000,     1.482,     3.000,    -1.000,1.06000, 3061,     5.700,   0.00000,   0.14000,   0.00000,   0.00000,1.00000,1,    3.0,     4.000,     1.000,   3,1.0000
31004,'1 ',     0.900,     0.000,     0.000,     0.000,1.00000,    0,     2.550,   0.00000,   0.20000,   0.00000,   0.20000,1.00000,1,  100.0,     2.550,     0.000,   2,1.0000
31271,'1 ',   399.000,    60.827,   200.000,  -114.000,1.07500, 4462,   500.000,   0.00000,   0.19000,   0.00000,   0.00000,1.00000,1,  200.0,   399.000,   163.000,   4,1.0000
32604,'1 ',     0.000,     0.000,     1.000,    -1.000,1.05000,    0,    15.000,   0.00000,   0.15000,   0.00000,   0.10000,1.00000,0,    1.0,     0.000,     0.000,   5,1.0000
33004,'1 ',     3.300,     0.000,     0.000,     0.000,1.00000,    0,     9.350,   0.00000,   0.20000,   0.00000,   0.20000,1.00000,1,  100.0,     9.350,     0.000,   2,1.0000
35078,'8 ',    99.600,    39.341,    62.000,   -40.000,1.06500, 3501,   118.000,   0.00000,   0.13700,   0.00000,   0.00000,1.00000,1,   62.0,   100.000,    40.000,   3,1.0000
35804,'1 ',     5.300,    -2.290,    -2.290,    -2.290,1.05000,    0,    15.000,   0.00000,   0.20000,   0.00000,   0.20000,1.00000,1,  100.0,    15.000,     0.000,   4,1.0000
35804,'2 ',     1.700,    -0.760,    -0.760,    -0.760,1.05000,    0,     5.300,   0.00000,   0.20000,   0.00000,   0.20000,1.00000,1,  100.0,     4.980,     0.000,   4,1.0000
35804,'3 ',     4.200,    -1.840,    -1.840,    -1.840,1.05000,    0,    12.000,   0.00000,   0.20000,   0.00000,   0.20000,1.00000,1,  100.0,    12.000,     0.000,   4,1.0000
35804,'4 ',     0.900,     0.000,     0.000,     0.000,1.05000,    0,     2.550,   0.00000,   0.20000,   0.00000,   0.20000,1.00000,1,  100.0,     2.550,     0.000,   4,1.0000
35804,'5 ',     0.900,     0.000,     0.000,     0.000,1.05000,    0,     2.550,   0.00000,   0.20000,   0.00000,   0.20000,1.00000,1,  100.0,     2.450,     0.000,   4,1.0000
38204,'1 ',     3.700,     0.000,     0.000,     0.000,1.00000,    0,    10.500,   0.00000,   0.20000,   0.00000,   0.20000,1.00000,1,  100.0,    10.500,     0.000,   4,1.0000
38204,'2 ',     1.600,     0.000,     0.000,     0.000,1.00000,    0,     4.500,   0.00000,   0.20000,   0.00000,   0.20000,1.00000,1,  100.0,     4.500,     0.000,   4,1.0000
39471,'1 ',   305.000,    84.771,   160.000,   -70.000,1.07500, 3944,   359.000,   0.00000,   0.17900,   0.00000,   0.00000,1.00000,1,  160.0,   305.000,   115.000,   3,1.0000
39472,'2 ',   305.000,    21.493,   160.000,   -70.000,1.07500, 3954,   359.000,   0.00000,   0.17900,   0.00000,   0.00000,1.00000,1,  160.0,   305.000,   115.000,   3,1.0000
39473,'3 ',   305.000,    84.771,   160.000,   -70.000,1.07500, 3944,   359.000,   0.00000,   0.17900,   0.00000,   0.00000,1.00000,1,  160.0,   305.000,   115.000,   3,1.0000
39672,'2 ',    27.800,     7.115,    15.000,     0.000,1.06000, 3961,    40.000,   0.00000,   0.12200,   0.00000,   0.00000,1.00000,1,   15.0,    30.000,    10.000,   3,1.0000
39675,'GT',    79.400,    28.458,    60.000,   -19.000,1.06000, 3961,   100.900,   0.00000,   0.12500,   0.00000,   0.00000,1.00000,1,   60.0,    90.000,    30.000,   3,1.0000
42404,'1 ',    13.500,     0.000,     5.000,     0.000,1.05000,    0,    20.000,   0.00000,   0.11700,   0.00000,   0.10500,1.07000,1,    5.0,    15.000,     6.000,   3,1.0000
42404,'2 ',    13.500,     0.000,     5.000,     0.000,1.05000,    0,    20.000,   0.00000,   0.11700,   0.00000,   0.10500,1.07000,1,    5.0,    15.000,     6.000,   3,1.0000
42404,'3 ',    13.500,     0.000,     5.000,     0.000,1.05000,    0,    20.000,   0.00000,   0.11700,   0.00000,   0.10000,1.07000,1,    5.0,    15.000,     6.000,   3,1.0000
42474,'4 ',   107.600,    16.727,    55.000,   -20.000,1.07500, 4462,   132.100,   0.00000,   0.13900,   0.00000,   0.00000,1.00000,1,   55.0,   118.000,    40.000,   3,1.0000
42475,'5 ',   109.000,     0.000,    55.000,   -20.000,1.07500, 4462,   132.100,   0.00000,   0.13900,   0.00000,   0.00000,1.00000,0,   55.0,   109.000,    20.000,   3,1.0000
44471,'1 ',    15.000,     2.904,     9.000,   -10.000,1.07000, 4441,    18.800,   0.00000,   0.27000,   0.00000,   0.00000,1.00000,1,    3.0,    15.000,     5.000,   3,1.0000
44471,'4 ',     4.000,     0.000,     3.000,    -1.000,1.07000, 4441,     5.000,   0.00000,   0.27000,   0.00000,   0.00000,1.00000,0,    3.0,     4.000,     1.000,   3,1.0000
44472,'2 ',    15.000,     8.713,     9.000,   -10.000,1.07000, 4441,    18.800,   0.00000,   0.27000,   0.00000,   0.00000,1.00000,1,    9.0,    15.000,     5.000,   3,1.0000
44671,'1 ',   104.800,    19.769,    65.000,   -43.000,1.07500, 4462,   150.000,   0.00000,   0.16700,   0.00000,   0.00000,1.00000,1,   65.0,   120.000,    60.000,   3,1.0000
44672,'2 ',   104.800,    20.073,    66.000,   -46.000,1.07500, 4462,   150.000,   0.00000,   0.16700,   0.00000,   0.00000,1.00000,1,   66.0,   120.000,    60.000,   3,1.0000
44673,'3 ',   245.300,    30.413,   100.000,   -48.000,1.07500, 4462,   318.800,   0.00000,   0.22500,   0.00000,   0.00000,1.00000,1,  100.0,   270.000,    60.000,   3,1.0000
46210,'1 ',     0.000,     0.000,     1.000,    -1.000,1.05000,    0,    20.000,   0.00000,   0.20000,   0.00000,   0.10000,1.00000,0,    1.0,     0.000,     0.000,   5,1.0000
49604,'1 ',     1.100,    -0.460,    -0.460,    -0.460,1.05000,    0,     3.000,   0.00000,   0.20000,   0.00000,   0.20000,1.00000,1,  100.0,     3.000,     0.000,   4,1.0000
49604,'2 ',     1.100,     0.000,     0.000,     0.000,1.05000,    0,     3.000,   0.00000,   0.20000,   0.00000,   0.20000,1.00000,1,  100.0,     3.000,     0.000,   4,1.0000
50004,'1 ',     2.700,    -1.170,    -1.170,    -1.170,1.05000,    0,     7.650,   0.00000,   0.20000,   0.00000,   0.20000,1.00000,1,  100.0,     7.650,     0.000,   2,1.0000
50274,'14',   140.400,    22.810,    75.000,   -40.000,1.07500, 4462,   170.000,   0.00000,   0.16200,   0.00000,   0.00000,1.00000,1,   75.0,   150.000,    50.000,   3,1.0000
50275,'15',   140.400,    22.810,    75.000,   -60.000,1.07500, 4462,   170.000,   0.00000,   0.16200,   0.00000,   0.00000,1.00000,1,   75.0,   150.000,    50.000,   3,1.0000
50276,'16',   169.100,    24.331,    80.000,   -40.000,1.07500, 4462,   230.000,   0.00000,   0.15800,   0.00000,   0.00000,1.00000,1,   80.0,   170.000,    30.000,   3,1.0000
51471,'1 ',    60.000,     0.000,    25.000,   -10.000,1.07500, 5142,    75.000,   0.00000,   0.13500,   0.00000,   0.00000,1.00000,0,   25.0,    60.000,    30.000,   3,1.0000
51472,'2 ',    52.600,    12.949,    25.000,   -10.000,1.07500, 5142,    75.000,   0.00000,   0.13500,   0.00000,   0.00000,1.00000,1,   25.0,    60.000,    30.000,   3,1.0000
51473,'3 ',   234.000,    56.975,   110.000,   -45.000,1.07500, 5142,   294.000,   0.00000,   0.20700,   0.00000,   0.00000,1.00000,1,  110.0,   256.000,    40.000,   3,1.0000
51474,'4 ',   234.000,    56.975,   110.000,   -45.000,1.07500, 5142,   294.000,   0.00000,   0.20700,   0.00000,   0.00000,1.00000,1,  110.0,   256.000,    40.000,   3,1.0000
52071,'1 ',    33.281,    12.253,    40.000,   -35.000,1.08000,    0,    87.500,   0.00000,   0.15000,   0.00000,   0.00000,1.00000,1,   40.0,    73.000,   -73.000,   3,1.0000
52071,'2 ',    33.281,    12.253,    40.000,   -35.000,1.08000,    0,    87.500,   0.00000,   0.15000,   0.00000,   0.00000,1.00000,1,   40.0,    73.000,   -73.000,   3,1.0000
52071,'3 ',    33.281,    12.253,    40.000,   -35.000,1.08000,    0,    87.500,   0.00000,   0.15000,   0.00000,   0.00000,1.00000,1,   40.0,    73.000,   -73.000,   3,1.0000
52071,'4 ',    33.281,    12.253,    40.000,   -35.000,1.08000,    0,    87.500,   0.00000,   0.15000,   0.00000,   0.00000,1.00000,1,   40.0,    73.000,   -73.000,   3,1.0000
52204,'1 ',     4.400,     0.000,     0.000,     0.000,1.00000,    0,    12.600,   0.00000,   0.20000,   0.00000,   0.20000,1.00000,1,  100.0,    12.600,     0.000,   4,1.0000
52476,'1 ',    52.400,     0.000,    32.600,   -22.700,1.07500, 5241,    62.000,   0.00000,   0.15100,   0.00000,   0.00000,1.00000,0,   32.6,    52.400,     1.200,   3,1.0000
52604,'1 ',     1.500,    -0.660,    -0.660,    -0.660,1.00000,    0,     4.300,   0.00000,   0.20000,   0.00000,   0.20000,1.00000,1,  100.0,     4.290,     0.000,   4,1.0000
52604,'2 ',     2.700,     0.000,     0.000,     0.000,1.00000,    0,     7.600,   0.00000,   0.20000,   0.00000,   0.20000,1.00000,1,  100.0,     7.600,     0.000,   4,1.0000
52804,'1 ',     5.300,    -2.290,    -2.290,    -2.290,1.05000,    0,    15.000,   0.00000,   0.20000,   0.00000,   0.20000,1.00000,1,  100.0,    15.000,     0.000,   4,1.0000
52804,'2 ',     2.400,    -1.040,    -1.040,    -1.040,1.05000,    0,     6.800,   0.00000,   0.20000,   0.00000,   0.20000,1.00000,1,  100.0,     6.800,     0.000,   2,1.0000
52804,'3 ',     1.400,    -0.610,    -0.610,    -0.610,1.05000,    0,     4.000,   0.00000,   0.20000,   0.00000,   0.20000,1.00000,1,  100.0,     4.000,     0.000,   4,1.0000
52804,'5 ',     1.800,     0.000,     0.000,     0.000,1.05000,    0,     5.100,   0.00000,   0.20000,   0.00000,   0.20000,1.00000,1,  100.0,     5.100,     0.000,   2,1.0000
53404,'1 ',     2.100,    -0.910,    -0.910,    -0.910,1.05000,    0,     6.000,   0.00000,   0.20000,   0.00000,   0.20000,1.00000,1,  100.0,     5.940,     0.000,   3,1.0000
53604,'1 ',     1.800,    -0.760,    -0.760,    -0.760,1.05000,    0,     5.000,   0.00000,   0.20000,   0.00000,   0.20000,1.00000,1,  100.0,     5.000,     0.000,   4,1.0000
53604,'2 ',     1.700,    -0.730,    -0.730,    -0.730,1.05000,    0,     4.800,   0.00000,   0.20000,   0.00000,   0.20000,1.00000,1,  100.0,     4.800,     0.000,   4,1.0000
53604,'3 ',     4.900,     0.000,     0.000,     0.000,1.05000,    0,    14.000,   0.00000,   0.20000,   0.00000,   0.20000,1.00000,1,  100.0,    14.000,     0.000,   4,1.0000
54801,'1 ',     0.000,     0.000,     1.000,    -1.000,1.05000,    0,    10.000,   0.00000,   0.13000,   0.00000,   0.10000,1.00000,0,    1.0,     0.000,     0.000,   5,1.0000
55004,'1 ',     4.100,    -1.800,    -1.800,    -1.800,1.05000,    0,    11.800,   0.00000,   0.20000,   0.00000,   0.20000,1.00000,1,  100.0,    11.800,     0.000,   4,1.0000
55004,'2 ',     7.100,     0.000,     0.000,     0.000,1.05000,    0,    20.250,   0.00000,   0.20000,   0.00000,   0.20000,1.00000,1,  100.0,    20.250,     0.000,   4,1.0000
3522,'6 ',   167.000,   -14.000,    14.000,   -14.000,1.01500,    0,   250.000,   0.00178,   0.17000,   0.00000,   0.00000,1.00000,1,   92.0,   200.000,    20.000,   6,1.0000
0 / END OF GENERATOR DATA, BEGIN BRANCH DATA
   11, 42404,'1 ',   0.00360,   0.00391,   0.00207, 9999.00, 9999.00,10998.90,  0.00000,  0.00000,  0.00000,  0.00000,1,   1.00,   2,1.0000
   12,-25404,'1 ',   0.00534,   0.00795,   0.00407, 9999.00, 9999.00,10998.90,  0.00000,  0.00000,  0.00000,  0.00000,1,   1.40,   1,1.0000
   12,-25404,'3 ',   0.00594,   0.00866,   0.00435, 9999.00, 9999.00,10998.90,  0.00000,  0.00000,  0.00000,  0.00000,1,   0.00,   1,1.0000
   12, 46504,'1 ',   0.02132,   0.02114,   0.00329, 9999.00, 9999.00,10998.90,  0.00000,  0.00000,  0.00000,  0.00000,1,   5.14,   1,1.0000
   12, 46504,'2 ',   0.01937,   0.01703,   0.00256, 9999.00, 9999.00,10998.90,  0.00000,  0.00000,  0.00000,  0.00000,1,   3.96,   1,1.0000
   41, -1741,'1 ',   0.00260,   0.00480,   0.07610,  100.00,  100.00,  107.00,  0.00000,  0.00000,  0.00000,  0.00000,0,   5.00,   1,1.0000
   41, -3871,'1 ',   0.00210,   0.00380,   0.06090,  100.00,  100.00,  107.00,  0.00000,  0.00000,  0.00000,  0.00000,1,   4.00,   1,1.0000
 1021,  2121,'1 ',   0.02830,   0.06260,   0.00590,  126.00,  126.00,  138.60,  0.00000,  0.00000,  0.00000,  0.00000,1,  18.20,   1,1.0000
 1021,  2361,'1 ',   0.05100,   0.11280,   0.01050,  126.00,  126.00,  138.60,  0.00000,  0.00000,  0.00000,  0.00000,1,  32.80,   1,1.0000
 1021,  3281,'1 ',   0.01480,   0.03270,   0.00310,  126.00,  126.00,  138.60,  0.00000,  0.00000,  0.00000,  0.00000,1,   9.50,   1,1.0000
 1021,  3541,'1 ',   0.01390,   0.03810,   0.01200,  126.00,  126.00,  138.60,  0.00000,  0.00000,  0.00000,  0.00000,1,  11.70,   1,1.0000
 1041,  5481,'1 ',   0.00490,   0.01070,   0.00100,  126.00,  126.00,  138.60,  0.00000,  0.00000,  0.00000,  0.00000,1,   3.10,   1,1.0000
 1042,  3202,'1 ',   0.00300,   0.02220,   0.03350,  518.00,  518.00,  569.80,  0.00000,  0.00000,  0.00000,  0.00000,1,  25.60,   1,1.0000
 1042,  3202,'2 ',   0.00300,   0.02220,   0.03350,  518.00,  518.00,  569.80,  0.00000,  0.00000,  0.00000,  0.00000,1,  25.60,   1,1.0000
 1061, 10619,'1 ',   0.00050,   0.00120,   0.00010,   57.00,   57.00,   62.70,  0.00000,  0.00000,  0.00000,  0.00000,1,   0.30,   1,1.0000
 1081,  3281,'1 ',   0.00390,   0.01240,   0.00390,   68.00,  112.00,  121.00,  0.00000,  0.00000,  0.00000,  0.00000,1,   3.80,   1,1.0000
 1101,  2161,'1 ',   0.00310,   0.00690,   0.00060,   45.00,  126.00,  138.60,  0.00000,  0.00000,  0.00000,  0.00000,1,   2.00,   1,1.0000
 1121,  1301,'1 ',   0.01260,   0.08920,   0.00810,  164.00,  164.00,  180.40,  0.00000,  0.00000,  0.00000,  0.00000,1,  25.00,   1,1.0000
 1121,  1841,'1 ',   0.06420,   0.14370,   0.01340,  126.00,  126.00,  138.60,  0.00000,  0.00000,  0.00000,  0.00000,1,  41.76,   1,1.0000
 1121,  4901,'1 ',   0.00350,   0.00770,   0.00080,   57.00,   57.00,   62.70,  0.00000,  0.00000,  0.00000,  0.00000,1,   2.20,   1,1.0000
 1121,  4911,'2 ',   0.00370,   0.00830,   0.00080,   57.00,   57.00,   62.70,  0.00000,  0.00000,  0.00000,  0.00000,1,   2.40,   1,1.0000
 1122,  1742,'1 ',   0.00620,   0.04620,   0.06970,  518.00,  518.00,  569.80,  0.00000,  0.00000,  0.00000,  0.00000,1,  53.30,   1,1.0000
 1122,  2742,'1 ',   0.01020,   0.07610,   0.11480,  275.00,  518.00,  569.80,  0.00000,  0.00000,  0.00000,  0.00000,1,  87.81,   1,1.0000
 1141,  3501,'1 ',   0.05400,   0.12280,   0.01160,   68.00,  126.00,  138.60,  0.00000,  0.00000,  0.00000,  0.00000,1,  35.80,   1,1.0000
 1141,  4941,'1 ',   0.02250,   0.07210,   0.00740,  131.00,  131.00,  144.10,  0.00000,  0.00000,  0.00000,  0.00000,1,  21.60,   1,1.0000
 1141, 11461,'1 ',   0.00000,   0.00010,   0.00000,  126.00,  126.00,  138.60,  0.00000,  0.00000,  0.00000,  0.00000,1,   0.00,   1,1.0000
 1161,  1781,'1 ',   0.00100,   0.00210,   0.00120,   51.00,   96.00,  138.60,  0.00000,  0.00000,  0.00000,  0.00000,1,   0.67,   1,1.0000
 1161,  1791,'2 ',   0.00100,   0.00210,   0.00120,   51.00,   96.00,  138.60,  0.00000,  0.00000,  0.00000,  0.00000,1,   0.67,   1,1.0000
 1161,  3901,'1 ',   0.02440,   0.09080,   0.00950,  126.00,  126.00,  138.60,  0.00000,  0.00000,  0.00000,  0.00000,1,  27.50,   1,1.0000
 1161,  5141,'1 ',   0.02140,   0.11040,   0.01200,  152.00,  152.00,  152.00,  0.00000,  0.00000,  0.00000,  0.00000,1,  34.20,   1,1.0000
 1181,  1861,'1 ',   0.06440,   0.14240,   0.01330,  126.00,  126.00,  138.60,  0.00000,  0.00000,  0.00000,  0.00000,1,  41.40,   1,1.0000
 1181,  2821,'1 ',   0.03650,   0.10300,   0.01030,  126.00,  126.00,  138.60,  0.00000,  0.00000,  0.00000,  0.00000,1,  30.60,   1,1.0000
 1181,  4221,'1 ',   0.08030,   0.22310,   0.02210,  103.00,  103.00,  113.30,  0.00000,  0.00000,  0.00000,  0.00000,1,  66.20,   1,1.0000
 1181,  4961,'1 ',   0.02920,   0.06450,   0.00600,  111.00,  111.00,  122.10,  0.00000,  0.00000,  0.00000,  0.00000,1,  18.58,   1,1.0000
 1201,  2561,'1 ',   0.00480,   0.01480,   0.05910,  140.00,  140.00,  252.00,  0.00000,  0.00000,  0.00000,  0.00000,1,   9.30,   2,1.0000
 1201,  3781,'1 ',   0.00250,   0.00780,   0.03120,  140.00,  140.00,  252.00,  0.00000,  0.00000,  0.00000,  0.00000,1,   4.90,   2,1.0000
 1251,  2361,'1 ',   0.03730,   0.08260,   0.00770,  126.00,  126.00,  138.60,  0.00000,  0.00000,  0.00000,  0.00000,1,  24.00,   1,1.0000
 1251, 52219,'1 ',   0.03050,   0.06740,   0.00630,  126.00,  126.00,  138.60,  0.00000,  0.00000,  0.00000,  0.00000,1,  19.60,   1,1.0000
 1281,  2221,'1 ',   0.00350,   0.00760,   0.00080,  126.00,  126.00,  138.60,  0.00000,  0.00000,  0.00000,  0.00000,1,  27.40,   2,1.0000
 1301,  1741,'1 ',   0.01590,   0.11540,   0.01040,  164.00,  164.00,  180.40,  0.00000,  0.00000,  0.00000,  0.00000,1,  32.30,   2,1.0000
 1321, 13219,'1 ',   0.00080,   0.00170,   0.00010,  126.00,  126.00,  138.60,  0.00000,  0.00000,  0.00000,  0.00000,1,   0.50,   1,1.0000
 1341,  1701,'1 ',   0.05330,   0.11780,   0.01100,  126.00,  126.00,  138.60,  0.00000,  0.00000,  0.00000,  0.00000,1,  34.20,   1,1.0000
 1361,  2001,'1 ',   0.03390,   0.07500,   0.00700,  126.00,  126.00,  138.60,  0.00000,  0.00000,  0.00000,  0.00000,1,  21.80,   1,1.0000
 1361,  2161,'1 ',   0.01760,   0.03890,   0.00370,  126.00,  126.00,  138.60,  0.00000,  0.00000,  0.00000,  0.00000,1,  11.30,   1,1.0000
 1381,  2931,'1 ',   0.00480,   0.01510,   0.00160,   68.00,  126.00,  138.60,  0.00000,  0.00000,  0.00000,  0.00000,1,   4.50,   1,1.0000
 1381,  4721,'1 ',   0.00270,   0.00590,   0.00060,   68.00,  103.00,  113.30,  0.00000,  0.00000,  0.00000,  0.00000,1,   1.70,   1,1.0000
 1381,  4721,'2 ',   0.00210,   0.00610,   0.00070,   68.00,  126.00,  138.60,  0.00000,  0.00000,  0.00000,  0.00000,1,   1.80,   1,1.0000
 1401,  1661,'1 ',   0.05780,   0.12790,   0.01190,  103.00,  103.00,  113.30,  0.00000,  0.00000,  0.00000,  0.00000,1,  37.20,   1,1.0000
 1401,  4041,'1 ',   0.04200,   0.09290,   0.00870,  126.00,  126.00,  138.60,  0.00000,  0.00000,  0.00000,  0.00000,1,  27.00,   1,1.0000
 1401, 14061,'1 ',   0.00000,   0.00100,   0.00000,  126.00,  126.00,  138.60,  0.00000,  0.00000,  0.00000,  0.00000,1,   0.00,   1,1.0000
 1421,  1741,'1 ',   0.00260,   0.00520,   0.11850,  119.00,  119.00,  130.00,  0.00000,  0.00000,  0.00000,  0.00000,1,   6.70,   2,1.0000
...